PMID31955138-compound-16.mol
 OpenBabel05082020293D

 64 64  0  0  0  0  0  0  0  0999 V2000
   14.8217   -1.4632    0.2808 N   0  0  0  0  0  0  0  0  0  0  0  0
   13.5961   -0.8128    0.2545 C   0  0  0  0  0  0  0  0  0  0  0  0
   12.7307   -1.4501    1.3333 C   0  0  3  0  0  0  0  0  0  0  0  0
   13.3399   -2.8598    1.3398 C   0  0  0  0  0  0  0  0  0  0  0  0
   14.8219   -2.5599    1.2006 C   0  0  0  0  0  0  0  0  0  0  0  0
   13.3111    0.0913   -0.5093 O   0  0  0  0  0  0  0  0  0  0  0  0
   11.2259   -1.3950    1.0526 C   0  0  0  0  0  0  0  0  0  0  0  0
   10.3528   -2.1116    2.1117 C   0  0  1  0  0  0  0  0  0  0  0  0
   10.5551   -1.6411    3.5724 C   0  0  3  0  0  0  0  0  0  0  0  0
    8.9109   -2.1120    1.7430 N   0  0  0  0  0  0  0  0  0  0  0  0
   10.6377   -3.1723    2.0931 H   0  0  0  0  0  0  0  0  0  0  0  0
   10.1038    0.1089    3.7944 S   0  0  0  0  0  0  0  0  0  0  0  0
    9.7962   -2.5450    4.4462 O   0  0  0  0  0  0  0  0  0  0  0  0
    8.7676    0.1792    3.2027 O   0  5  0  0  0  0  0  0  0  0  0  0
   10.0961    0.2188    5.2659 O   0  0  0  0  0  0  0  0  0  0  0  0
   11.1406    0.8664    3.1190 O   0  0  0  0  0  0  0  0  0  0  0  0
    8.3463   -2.9602    0.8258 C   0  0  0  0  0  0  0  0  0  0  0  0
    9.0172   -3.7296    0.1371 O   0  0  0  0  0  0  0  0  0  0  0  0
    6.8060   -2.8387    0.6183 C   0  0  2  0  0  0  0  0  0  0  0  0
    6.4643   -1.6607   -0.3199 C   0  0  0  0  0  0  0  0  0  0  0  0
    6.0784   -2.7592    1.9148 N   0  0  0  0  0  0  0  0  0  0  0  0
    7.1529   -1.6534   -1.7092 C   0  0  0  0  0  0  0  0  0  0  0  0
    6.7811   -2.8425   -2.5997 C   0  0  0  0  0  0  0  0  0  0  0  0
    6.7972   -0.3617   -2.4597 C   0  0  0  0  0  0  0  0  0  0  0  0
    4.7135   -2.8098    2.0714 C   0  0  0  0  0  0  0  0  0  0  0  0
    3.8782   -2.6650    1.1789 O   0  0  0  0  0  0  0  0  0  0  0  0
    4.3840   -3.0452    3.3717 O   0  0  0  0  0  0  0  0  0  0  0  0
    2.9925   -3.3306    3.6955 C   0  0  0  0  0  0  0  0  0  0  0  0
    2.1045   -2.0956    3.6953 C   0  0  0  0  0  0  0  0  0  0  0  0
    0.7856   -2.1348    3.2245 C   0  0  0  0  0  0  0  0  0  0  0  0
    0.0009   -0.9461    3.2451 C   0  0  0  0  0  0  0  0  0  0  0  0
    0.6070    0.2715    3.5354 C   0  0  0  0  0  0  0  0  0  0  0  0
    1.9468    0.2925    3.8953 C   0  0  0  0  0  0  0  0  0  0  0  0
    2.6019   -0.8992    4.1921 C   0  0  0  0  0  0  0  0  0  0  0  0
    1.7781   -0.5919    0.5796 Na  0  3  0  0  0 15  0  0  0  0  0  0
   15.5293   -1.2593   -0.4129 H   0  0  0  0  0  0  0  0  0  0  0  0
   12.9722   -0.9356    2.2721 H   0  0  0  0  0  0  0  0  0  0  0  0
   12.9983   -3.4189    0.4570 H   0  0  0  0  0  0  0  0  0  0  0  0
   13.1063   -3.4438    2.2321 H   0  0  0  0  0  0  0  0  0  0  0  0
   15.4057   -3.3937    0.8048 H   0  0  0  0  0  0  0  0  0  0  0  0
   15.2557   -2.2182    2.1471 H   0  0  0  0  0  0  0  0  0  0  0  0
   11.0354   -1.8413    0.0685 H   0  0  0  0  0  0  0  0  0  0  0  0
   10.9106   -0.3507    0.9425 H   0  0  0  0  0  0  0  0  0  0  0  0
   11.5987   -1.7286    3.8867 H   0  0  0  0  0  0  0  0  0  0  0  0
    8.3772   -1.3182    2.1195 H   0  0  0  0  0  0  0  0  0  0  0  0
    9.3655   -1.9109    5.0631 H   0  0  0  0  0  0  0  0  0  0  0  0
    6.4798   -3.7835    0.1667 H   0  0  0  0  0  0  0  0  0  0  0  0
    5.3805   -1.6316   -0.4833 H   0  0  0  0  0  0  0  0  0  0  0  0
    6.7146   -0.7264    0.1973 H   0  0  0  0  0  0  0  0  0  0  0  0
    6.6250   -2.9638    2.7485 H   0  0  0  0  0  0  0  0  0  0  0  0
    8.2391   -1.6600   -1.5641 H   0  0  0  0  0  0  0  0  0  0  0  0
    5.7556   -2.7573   -2.9777 H   0  0  0  0  0  0  0  0  0  0  0  0
    6.8764   -3.8000   -2.0827 H   0  0  0  0  0  0  0  0  0  0  0  0
    7.4447   -2.8763   -3.4728 H   0  0  0  0  0  0  0  0  0  0  0  0
    5.7258   -0.3164   -2.6877 H   0  0  0  0  0  0  0  0  0  0  0  0
    7.3416   -0.3013   -3.4086 H   0  0  0  0  0  0  0  0  0  0  0  0
    7.0550    0.5231   -1.8693 H   0  0  0  0  0  0  0  0  0  0  0  0
    2.9758   -3.7541    4.7049 H   0  0  0  0  0  0  0  0  0  0  0  0
    2.6165   -4.0970    3.0070 H   0  0  0  0  0  0  0  0  0  0  0  0
    0.3112   -3.0466    2.8995 H   0  0  0  0  0  0  0  0  0  0  0  0
   -1.0669   -0.9811    3.0456 H   0  0  0  0  0  0  0  0  0  0  0  0
    0.0365    1.1993    3.5485 H   0  0  0  0  0  0  0  0  0  0  0  0
    2.4915    1.2306    3.9986 H   0  0  0  0  0  0  0  0  0  0  0  0
    3.4680   -0.8999    4.8364 H   0  0  0  0  0  0  0  0  0  0  0  0
  1  2  1  0  0  0  0
  1 36  1  0  0  0  0
  2  3  1  0  0  0  0
  2  6  2  0  0  0  0
  3  4  1  0  0  0  0
  3  7  1  0  0  0  0
  3 37  1  0  0  0  0
  4  5  1  0  0  0  0
  4 38  1  0  0  0  0
  4 39  1  0  0  0  0
  5  1  1  0  0  0  0
  5 40  1  0  0  0  0
  5 41  1  0  0  0  0
  7  8  1  0  0  0  0
  7 42  1  0  0  0  0
  7 43  1  0  0  0  0
  8  9  1  0  0  0  0
  8 10  1  0  0  0  0
  8 11  1  6  0  0  0
  9 12  1  0  0  0  0
  9 13  1  0  0  0  0
  9 44  1  0  0  0  0
 10 17  1  0  0  0  0
 10 45  1  0  0  0  0
 12 14  1  0  0  0  0
 12 15  2  0  0  0  0
 12 16  2  0  0  0  0
 13 46  1  0  0  0  0
 17 18  2  0  0  0  0
 19 21  1  0  0  0  0
 19 20  1  0  0  0  0
 19 17  1  0  0  0  0
 19 47  1  6  0  0  0
 20 22  1  0  0  0  0
 20 48  1  0  0  0  0
 20 49  1  0  0  0  0
 21 25  1  0  0  0  0
 21 50  1  0  0  0  0
 22 23  1  0  0  0  0
 22 24  1  0  0  0  0
 22 51  1  0  0  0  0
 23 52  1  0  0  0  0
 23 53  1  0  0  0  0
 23 54  1  0  0  0  0
 24 55  1  0  0  0  0
 24 56  1  0  0  0  0
 24 57  1  0  0  0  0
 25 26  2  0  0  0  0
 25 27  1  0  0  0  0
 27 28  1  0  0  0  0
 28 29  1  0  0  0  0
 28 58  1  0  0  0  0
 28 59  1  0  0  0  0
 29 30  2  0  0  0  0
 30 31  1  0  0  0  0
 30 60  1  0  0  0  0
 31 32  2  0  0  0  0
 31 61  1  0  0  0  0
 32 33  1  0  0  0  0
 32 62  1  0  0  0  0
 33 34  2  0  0  0  0
 33 63  1  0  0  0  0
 34 29  1  0  0  0  0
 34 64  1  0  0  0  0
M  CHG  2  14  -1  35   1
M  END
$$$$
